15
Coordinates from ORCA-job input
  O           0.66727995868332     -0.45538786814969     -0.00013732917643
  O          -1.47351792544390     -0.78375766453784     -0.00016656951786
  O          -0.70640819411255      1.34945193862528     -0.00089696026928
  C           1.82076540435700      0.42127535323730     -0.00030626021953
  C           3.05297161461029     -0.45726321919394     -0.00010948848711
  C          -0.52001853083296      0.15641036643555     -0.00052711695327
  C          -2.82128775744018     -0.28302081710275     -0.00036532653561
  H           1.77275559808175      1.06182777275447     -0.88397938851714
  H           1.77276086366666      1.06216087380839      0.88312881543968
  H           3.94911819592351      0.16911548996106      0.00017973313564
  H           3.07772052781704     -1.09517079676355      0.88620626937971
  H           3.07817139339988     -1.09504485682966     -0.88650126842955
  H          -3.00486869134663      0.32155825675657      0.88911913849999
  H          -3.45544467323076     -1.16672530919627      0.00003491942990
  H          -3.00489778413248      0.32077048019508     -0.89037916777912
